.include "/home/dominic/Documents/school/50002/nominal.jsim"
.include "/home/dominic/Documents/school/50002/8clocks.jsim"

.subckt nand2 A B Z
MPU1 Z A vdd vdd PENH sw=8 sl=1
MPU2 Z B vdd vdd PENH sw=8 sl=1

MPD1 Z A 1 0 NENH sw=8 sl=1
MPD2 1 B 0 0 NENH sw=8 sl=1
.ends

*Xtest clk1 clk2 z nand2
*.tran 20ns
*.plot clk1
*.plot clk2
*.plot z