.include "/home/dominic/Documents/school/50002/nominal.jsim"

.subckt nor2 A B Z
MPU1 1 A vdd vdd PENH sw=8 sl=1
MPU2 Z B 1 vdd PENH sw=8 sl=1

MPD1 Z A 0 0 NENH sw=8 sl=1
MPD2 Z B 0 0 NENH sw=8 sl=1
.ends