* circuit for Lab#1, parts C thru F
.include "/home/dominic/Documents/school/50002/nominal.jsim"

* 2-input NAND: inputs are A and B, output is Z
Vmeter vds drain 0v
Vds vds 0 0v
Vgs gate 0 0v
* 0 is a special node. used for ground
* N-channel mosfet used for our test
M1 drain gate 0 0 NENH W=1.2u L=600n
* drain, gate, source, ground
.dc Vds 0 5 .1 Vgs 0 5 1
* 51 and 6 steps
.plot I(Vmeter)